     5
 # iter =     0  time[fs]= 0.00000
   C  0.101161000E+00  0.739685000E-01 -0.999420000E-01
   H  0.755285000E+00  0.736064500E+00 -0.672351000E+00
   H -0.755285000E+00  0.641091500E+00  0.272589000E+00
   H  0.655114000E+00 -0.345226500E+00  0.743454000E+00
   H -0.250469000E+00 -0.736064500E+00 -0.743454000E+00